<?xml version="1.0" encoding="UTF-8"?>

<!-- generated on 2024-08-27 00:10:07 by Eclipse SUMO netedit Version 1.20.0
<configuration xmlns:xsi="http://www.w3.org/2001/XMLSchema-instance" xsi:noNamespaceSchemaLocation="http://sumo.dlr.de/xsd/neteditConfiguration.xsd">

    <input>
        <sumo-net-file value="C:\Users\user\Desktop\sumo\secondtry\new22.net.xml"/>
    </input>

    <output>
        <output-file value="C:\Users\user\Desktop\sumo\secondtry\new22.net.xml"/>
    </output>

    <processing>
        <geometry.min-radius.fix.railways value="false"/>
        <geometry.max-grade.fix value="false"/>
        <offset.disable-normalization value="true"/>
        <lefthand value="0"/>
    </processing>

    <junctions>
        <no-turnarounds value="true"/>
        <junctions.corner-detail value="5"/>
        <junctions.limit-turn-speed value="5.50"/>
        <rectangular-lane-cut value="0"/>
    </junctions>

    <pedestrian>
        <walkingareas value="0"/>
    </pedestrian>

</configuration>
-->

<net version="1.20" junctionCornerDetail="5" limitTurnSpeed="5.50" xmlns:xsi="http://www.w3.org/2001/XMLSchema-instance" xsi:noNamespaceSchemaLocation="http://sumo.dlr.de/xsd/net_file.xsd">

    <location netOffset="0.00,0.00" convBoundary="-29.61,-32.82,219.44,124.77" origBoundary="-10000000000.00,-10000000000.00,10000000000.00,10000000000.00" projParameter="!"/>

    <edge id=":J1_0" function="internal">
        <lane id=":J1_0_0" index="0" speed="6.77" length="9.70" shape="110.75,55.88 108.09,56.25 106.18,57.35 105.00,59.19 104.56,61.77"/>
    </edge>
    <edge id=":J1_1" function="internal">
        <lane id=":J1_1_0" index="0" speed="13.89" length="21.31" shape="110.75,55.88 89.45,55.93"/>
        <lane id=":J1_1_1" index="1" speed="13.89" length="21.31" shape="110.75,52.68 89.43,52.73"/>
    </edge>
    <edge id=":J1_3" function="internal">
        <lane id=":J1_3_0" index="0" speed="9.18" length="4.91" shape="110.75,52.68 105.89,51.98"/>
    </edge>
    <edge id=":J1_16" function="internal">
        <lane id=":J1_16_0" index="0" speed="9.18" length="14.84" shape="105.89,51.98 105.36,51.90 101.59,49.58 99.46,45.70 98.97,40.27"/>
    </edge>
    <edge id=":J1_4" function="internal">
        <lane id=":J1_4_0" index="0" speed="6.40" length="9.04" shape="105.36,40.60 105.59,43.09 106.56,44.86 108.28,45.93 110.75,46.28"/>
    </edge>
    <edge id=":J1_5" function="internal">
        <lane id=":J1_5_0" index="0" speed="13.89" length="21.23" shape="105.36,40.60 104.56,61.77"/>
        <lane id=":J1_5_1" index="1" speed="13.89" length="21.23" shape="102.17,40.44 101.36,61.70"/>
    </edge>
    <edge id=":J1_7" function="internal">
        <lane id=":J1_7_0" index="0" speed="9.59" length="4.66" shape="102.17,40.44 101.28,45.01"/>
    </edge>
    <edge id=":J1_17" function="internal">
        <lane id=":J1_17_0" index="0" speed="9.59" length="15.27" shape="101.28,45.01 101.13,45.79 98.66,49.63 94.77,51.94 89.43,52.73"/>
    </edge>
    <edge id=":J1_8" function="internal">
        <lane id=":J1_8_0" index="0" speed="6.96" length="10.03" shape="89.41,46.33 92.07,45.93 94.02,44.76 95.26,42.82 95.78,40.10"/>
    </edge>
    <edge id=":J1_9" function="internal">
        <lane id=":J1_9_0" index="0" speed="13.89" length="21.34" shape="89.41,46.33 110.75,46.28"/>
        <lane id=":J1_9_1" index="1" speed="13.89" length="21.34" shape="89.42,49.53 110.75,49.48"/>
    </edge>
    <edge id=":J1_11" function="internal">
        <lane id=":J1_11_0" index="0" speed="9.21" length="5.07" shape="89.42,49.53 94.45,50.23"/>
    </edge>
    <edge id=":J1_18" function="internal">
        <lane id=":J1_18_0" index="0" speed="9.21" length="14.49" shape="94.45,50.23 94.75,50.27 98.52,52.54 100.72,56.35 101.36,61.70"/>
    </edge>
    <edge id=":J1_12" function="internal">
        <lane id=":J1_12_0" index="0" speed="6.45" length="9.03" shape="94.96,61.55 94.67,59.08 93.65,57.32 91.91,56.27 89.45,55.93"/>
    </edge>
    <edge id=":J1_13" function="internal">
        <lane id=":J1_13_0" index="0" speed="13.89" length="21.41" shape="94.96,61.55 95.78,40.10"/>
        <lane id=":J1_13_1" index="1" speed="13.89" length="21.41" shape="98.16,61.62 98.97,40.27"/>
    </edge>
    <edge id=":J1_15" function="internal">
        <lane id=":J1_15_0" index="0" speed="9.45" length="5.28" shape="98.16,61.62 99.04,56.41"/>
    </edge>
    <edge id=":J1_19" function="internal">
        <lane id=":J1_19_0" index="0" speed="9.45" length="14.56" shape="99.04,56.41 99.06,56.31 101.45,52.52 105.35,50.24 110.75,49.48"/>
    </edge>

    <edge id="-E0" from="J1" to="J0" priority="-1">
        <lane id="-E0_0" index="0" speed="13.89" length="119.04" shape="89.45,55.93 -29.59,56.46"/>
        <lane id="-E0_1" index="1" speed="13.89" length="119.04" shape="89.43,52.73 -29.60,53.26"/>
    </edge>
    <edge id="-E1" from="J2" to="J1" priority="-1">
        <lane id="-E1_0" index="0" speed="13.89" length="108.69" shape="219.44,55.88 110.75,55.88"/>
        <lane id="-E1_1" index="1" speed="13.89" length="108.69" shape="219.44,52.68 110.75,52.68"/>
    </edge>
    <edge id="-E2" from="J3" to="J1" priority="-1">
        <lane id="-E2_0" index="0" speed="13.89" length="73.27" shape="109.17,-32.57 105.36,40.60"/>
        <lane id="-E2_1" index="1" speed="13.89" length="73.27" shape="105.98,-32.74 102.17,40.44"/>
    </edge>
    <edge id="-E3" from="J4" to="J1" priority="-1">
        <lane id="-E3_0" index="0" speed="13.89" length="63.13" shape="93.47,124.66 94.96,61.55"/>
        <lane id="-E3_1" index="1" speed="13.89" length="63.13" shape="96.67,124.73 98.16,61.62"/>
    </edge>
    <edge id="E0" from="J0" to="J1" priority="-1">
        <lane id="E0_0" index="0" speed="13.89" length="119.04" shape="-29.63,46.86 89.41,46.33"/>
        <lane id="E0_1" index="1" speed="13.89" length="119.04" shape="-29.62,50.06 89.42,49.53"/>
    </edge>
    <edge id="E1" from="J1" to="J2" priority="-1">
        <lane id="E1_0" index="0" speed="13.89" length="108.69" shape="110.75,46.28 219.44,46.28"/>
        <lane id="E1_1" index="1" speed="13.89" length="108.69" shape="110.75,49.48 219.44,49.48"/>
    </edge>
    <edge id="E2" from="J1" to="J3" priority="-1">
        <lane id="E2_0" index="0" speed="13.89" length="73.27" shape="95.78,40.10 99.59,-33.07"/>
        <lane id="E2_1" index="1" speed="13.89" length="73.27" shape="98.97,40.27 102.78,-32.90"/>
    </edge>
    <edge id="E3" from="J1" to="J4" priority="-1">
        <lane id="E3_0" index="0" speed="13.89" length="63.13" shape="104.56,61.77 103.07,124.88"/>
        <lane id="E3_1" index="1" speed="13.89" length="63.13" shape="101.36,61.70 99.87,124.81"/>
    </edge>

    <tlLogic id="J1" type="static" programID="0" offset="0">
        <phase duration="42" state="GGGgrrrrGGGgrrrr"/>
        <phase duration="3"  state="yyyyrrrryyyyrrrr"/>
        <phase duration="42" state="rrrrGGGgrrrrGGGg"/>
        <phase duration="3"  state="rrrryyyyrrrryyyy"/>
    </tlLogic>

    <junction id="J0" type="dead_end" x="-29.61" y="51.66" incLanes="-E0_0 -E0_1" intLanes="" shape="-29.61,51.66 -29.58,58.06 -29.61,51.66"/>
    <junction id="J1" type="traffic_light" x="100.01" y="51.08" incLanes="-E1_0 -E1_1 -E2_0 -E2_1 E0_0 E0_1 -E3_0 -E3_1" intLanes=":J1_0_0 :J1_1_0 :J1_1_1 :J1_16_0 :J1_4_0 :J1_5_0 :J1_5_1 :J1_17_0 :J1_8_0 :J1_9_0 :J1_9_1 :J1_18_0 :J1_12_0 :J1_13_0 :J1_13_1 :J1_19_0" shape="110.75,57.48 110.75,44.68 108.55,44.24 107.80,43.68 107.29,42.90 107.01,41.91 106.96,40.69 94.18,40.02 93.54,42.63 92.86,43.54 91.95,44.20 90.79,44.59 89.40,44.73 89.46,57.53 91.67,57.96 92.43,58.51 92.97,59.29 93.28,60.29 93.36,61.51 106.16,61.81 106.71,59.40 107.36,58.56 108.25,57.96 109.38,57.60">
        <request index="0"  response="0000000000000000" foes="0000000001100000" cont="0"/>
        <request index="1"  response="1000000010000000" foes="1111100011100000" cont="0"/>
        <request index="2"  response="1000000010000000" foes="1111100011100000" cont="0"/>
        <request index="3"  response="1000011010000000" foes="1110011011100000" cont="1"/>
        <request index="4"  response="0000011000000000" foes="0000011000000000" cont="0"/>
        <request index="5"  response="0000111000001111" foes="1000111000001111" cont="0"/>
        <request index="6"  response="0000111000001111" foes="1000111000001111" cont="0"/>
        <request index="7"  response="0110111000001110" foes="0110111000001110" cont="1"/>
        <request index="8"  response="0000000000000000" foes="0110000000000000" cont="0"/>
        <request index="9"  response="1000000010000000" foes="1110000011111000" cont="0"/>
        <request index="10" response="1000000010000000" foes="1110000011111000" cont="0"/>
        <request index="11" response="1000000010000110" foes="1110000011100110" cont="1"/>
        <request index="12" response="0000000000000110" foes="0000000000000110" cont="0"/>
        <request index="13" response="0000111100001110" foes="0000111110001110" cont="0"/>
        <request index="14" response="0000111100001110" foes="0000111110001110" cont="0"/>
        <request index="15" response="0000111001101110" foes="0000111001101110" cont="1"/>
    </junction>
    <junction id="J2" type="dead_end" x="219.44" y="51.08" incLanes="E1_0 E1_1" intLanes="" shape="219.44,51.08 219.44,44.68 219.44,51.08"/>
    <junction id="J3" type="dead_end" x="104.38" y="-32.82" incLanes="E2_0 E2_1" intLanes="" shape="104.38,-32.82 97.99,-33.15 104.38,-32.82"/>
    <junction id="J4" type="dead_end" x="98.27" y="124.77" incLanes="E3_0 E3_1" intLanes="" shape="98.27,124.77 104.67,124.92 98.27,124.77"/>

    <junction id=":J1_16_0" type="internal" x="105.89" y="51.98" incLanes=":J1_3_0 E0_0 E0_1" intLanes=":J1_5_0 :J1_5_1 :J1_7_0 :J1_8_0 :J1_9_0 :J1_9_1 :J1_13_0 :J1_13_1 :J1_15_0"/>
    <junction id=":J1_17_0" type="internal" x="101.28" y="45.01" incLanes=":J1_7_0 -E3_0 -E3_1" intLanes=":J1_1_0 :J1_1_1 :J1_3_0 :J1_9_0 :J1_9_1 :J1_11_0 :J1_12_0 :J1_13_0 :J1_13_1"/>
    <junction id=":J1_18_0" type="internal" x="94.45" y="50.23" incLanes=":J1_11_0 -E1_0 -E1_1" intLanes=":J1_0_0 :J1_1_0 :J1_1_1 :J1_5_0 :J1_5_1 :J1_7_0 :J1_13_0 :J1_13_1 :J1_15_0"/>
    <junction id=":J1_19_0" type="internal" x="99.04" y="56.41" incLanes=":J1_15_0 -E2_0 -E2_1" intLanes=":J1_1_0 :J1_1_1 :J1_3_0 :J1_4_0 :J1_5_0 :J1_5_1 :J1_9_0 :J1_9_1 :J1_11_0"/>

    <connection from="-E1" to="E3" fromLane="0" toLane="0" via=":J1_0_0" tl="J1" linkIndex="0" dir="r" state="O"/>
    <connection from="-E1" to="-E0" fromLane="0" toLane="0" via=":J1_1_0" tl="J1" linkIndex="1" dir="s" state="O"/>
    <connection from="-E1" to="-E0" fromLane="1" toLane="1" via=":J1_1_1" tl="J1" linkIndex="2" dir="s" state="O"/>
    <connection from="-E1" to="E2" fromLane="1" toLane="1" via=":J1_3_0" tl="J1" linkIndex="3" dir="l" state="o"/>
    <connection from="-E2" to="E1" fromLane="0" toLane="0" via=":J1_4_0" tl="J1" linkIndex="4" dir="r" state="o"/>
    <connection from="-E2" to="E3" fromLane="0" toLane="0" via=":J1_5_0" tl="J1" linkIndex="5" dir="s" state="o"/>
    <connection from="-E2" to="E3" fromLane="1" toLane="1" via=":J1_5_1" tl="J1" linkIndex="6" dir="s" state="o"/>
    <connection from="-E2" to="-E0" fromLane="1" toLane="1" via=":J1_7_0" tl="J1" linkIndex="7" dir="l" state="o"/>
    <connection from="-E3" to="-E0" fromLane="0" toLane="0" via=":J1_12_0" tl="J1" linkIndex="12" dir="r" state="o"/>
    <connection from="-E3" to="E2" fromLane="0" toLane="0" via=":J1_13_0" tl="J1" linkIndex="13" dir="s" state="o"/>
    <connection from="-E3" to="E2" fromLane="1" toLane="1" via=":J1_13_1" tl="J1" linkIndex="14" dir="s" state="o"/>
    <connection from="-E3" to="E1" fromLane="1" toLane="1" via=":J1_15_0" tl="J1" linkIndex="15" dir="l" state="o"/>
    <connection from="E0" to="E2" fromLane="0" toLane="0" via=":J1_8_0" tl="J1" linkIndex="8" dir="r" state="O"/>
    <connection from="E0" to="E1" fromLane="0" toLane="0" via=":J1_9_0" tl="J1" linkIndex="9" dir="s" state="O"/>
    <connection from="E0" to="E1" fromLane="1" toLane="1" via=":J1_9_1" tl="J1" linkIndex="10" dir="s" state="O"/>
    <connection from="E0" to="E3" fromLane="1" toLane="1" via=":J1_11_0" tl="J1" linkIndex="11" dir="l" state="o"/>

    <connection from=":J1_0" to="E3" fromLane="0" toLane="0" dir="r" state="M"/>
    <connection from=":J1_1" to="-E0" fromLane="0" toLane="0" dir="s" state="M"/>
    <connection from=":J1_1" to="-E0" fromLane="1" toLane="1" dir="s" state="M"/>
    <connection from=":J1_3" to="E2" fromLane="0" toLane="1" via=":J1_16_0" dir="l" state="m"/>
    <connection from=":J1_16" to="E2" fromLane="0" toLane="1" dir="l" state="M"/>
    <connection from=":J1_4" to="E1" fromLane="0" toLane="0" dir="r" state="M"/>
    <connection from=":J1_5" to="E3" fromLane="0" toLane="0" dir="s" state="M"/>
    <connection from=":J1_5" to="E3" fromLane="1" toLane="1" dir="s" state="M"/>
    <connection from=":J1_7" to="-E0" fromLane="0" toLane="1" via=":J1_17_0" dir="l" state="m"/>
    <connection from=":J1_17" to="-E0" fromLane="0" toLane="1" dir="l" state="M"/>
    <connection from=":J1_8" to="E2" fromLane="0" toLane="0" dir="r" state="M"/>
    <connection from=":J1_9" to="E1" fromLane="0" toLane="0" dir="s" state="M"/>
    <connection from=":J1_9" to="E1" fromLane="1" toLane="1" dir="s" state="M"/>
    <connection from=":J1_11" to="E3" fromLane="0" toLane="1" via=":J1_18_0" dir="l" state="m"/>
    <connection from=":J1_18" to="E3" fromLane="0" toLane="1" dir="l" state="M"/>
    <connection from=":J1_12" to="-E0" fromLane="0" toLane="0" dir="r" state="M"/>
    <connection from=":J1_13" to="E2" fromLane="0" toLane="0" dir="s" state="M"/>
    <connection from=":J1_13" to="E2" fromLane="1" toLane="1" dir="s" state="M"/>
    <connection from=":J1_15" to="E1" fromLane="0" toLane="1" via=":J1_19_0" dir="l" state="m"/>
    <connection from=":J1_19" to="E1" fromLane="0" toLane="1" dir="l" state="M"/>

</net>
