<?xml version="1.0" encoding="UTF-8"?>

<!-- generated on 2024-08-25 20:06:08 by Eclipse SUMO sumo Version 1.20.0
-->


<configuration>
    <input>
        <net-file value="new22.net.xml"/>
        <route-files value="ssasda.rou.xml"/>
    </input>

</configuration>